Version 4
SHEET 1 1112 812
WIRE 16 -16 -64 -16
WIRE 128 -16 96 -16
WIRE 160 -16 128 -16
WIRE 384 -16 240 -16
WIRE 512 0 448 0
WIRE 576 0 512 0
WIRE 384 16 320 16
WIRE 128 32 128 -16
WIRE 128 128 128 96
WIRE 320 128 320 16
WIRE 512 128 512 0
WIRE 512 128 320 128
WIRE -416 272 -416 240
WIRE -352 272 -352 240
WIRE -256 272 -256 240
WIRE -416 336 -416 304
WIRE -352 336 -352 304
WIRE -256 336 -256 304
WIRE 352 432 336 432
WIRE 432 432 416 432
WIRE 704 432 672 432
WIRE 800 432 784 432
WIRE 176 544 96 544
WIRE 304 544 256 544
WIRE 336 544 336 432
WIRE 336 544 304 544
WIRE 432 544 432 432
WIRE 432 544 416 544
WIRE 480 544 432 544
WIRE 528 544 480 544
WIRE 560 544 528 544
WIRE 672 544 672 432
WIRE 672 544 640 544
WIRE 688 544 672 544
WIRE 800 560 800 432
WIRE 800 560 752 560
WIRE 912 560 800 560
WIRE 688 576 672 576
WIRE 672 640 672 576
WIRE 304 672 304 544
WIRE 352 672 304 672
WIRE 480 688 480 544
WIRE 480 688 416 688
WIRE 352 704 304 704
WIRE 304 736 304 704
FLAG -256 240 VCC
FLAG -256 336 0
FLAG -176 304 0
FLAG -352 240 VEE
FLAG -352 336 0
FLAG 304 736 0
FLAG 528 544 B_
FLAG 96 544 A
FLAG 384 656 VCC
FLAG 672 640 0
FLAG 912 560 C_
FLAG 720 528 VCC
FLAG 384 720 VEE
FLAG 720 592 VEE
FLAG -112 272 A
FLAG -112 304 0
FLAG 416 -32 0
FLAG 416 32 VCC
FLAG -64 -16 A
FLAG 576 0 C
FLAG 128 128 0
FLAG -416 240 VCC2
FLAG -416 336 0
SYMBOL MiniSyms4\\voltage- -256 288 R0
WINDOW 123 0 0 Left 0
WINDOW 39 0 0 Left 0
SYMATTR InstName V1
SYMATTR Value 5
SYMBOL MiniSyms4\\voltage- -176 288 R0
WINDOW 123 0 0 Left 0
WINDOW 39 0 0 Left 0
SYMATTR InstName sig
SYMATTR Value ac 1
SYMBOL MiniSyms4\\voltage- -352 288 R0
WINDOW 123 0 0 Left 0
WINDOW 39 0 0 Left 0
SYMATTR InstName V3
SYMATTR Value -5
SYMBOL res 272 528 R90
WINDOW 0 0 56 VBottom 2
WINDOW 3 32 56 VTop 2
SYMATTR InstName R5
SYMATTR Value 10k
SYMBOL cap 416 416 R90
WINDOW 0 0 32 VBottom 2
WINDOW 3 32 32 VTop 2
SYMATTR InstName C2
SYMATTR Value 150n
SYMBOL res 432 528 R90
WINDOW 0 0 56 VBottom 2
WINDOW 3 32 56 VTop 2
SYMATTR InstName R6
SYMATTR Value 10k
SYMBOL EXTRA\\ExtraOpamps\\LM324_NS 384 688 R0
SYMATTR InstName U3
SYMBOL EXTRA\\ExtraOpamps\\LM324_NS 720 560 R0
SYMATTR InstName U4
SYMBOL res 800 416 R90
WINDOW 0 0 56 VBottom 2
WINDOW 3 32 56 VTop 2
SYMATTR InstName R7
SYMATTR Value 10k
SYMBOL res 656 528 R90
WINDOW 0 0 56 VBottom 2
WINDOW 3 32 56 VTop 2
SYMATTR InstName R8
SYMATTR Value 10k
SYMBOL MiniSyms4\\voltage- -112 288 R0
WINDOW 123 0 0 Left 0
WINDOW 39 0 0 Left 0
SYMATTR InstName sig1
SYMATTR Value PULSE(0 3.3 0 1n 1n 500e-6 1000e-6)
SYMBOL EXTRA\\ExtraOpamps\\LM324_NS 416 0 M180
SYMATTR InstName U1
SYMBOL res 0 0 R270
WINDOW 0 32 56 VTop 2
WINDOW 3 0 56 VBottom 2
SYMATTR InstName R1
SYMATTR Value 10k
SYMBOL cap 144 96 R180
WINDOW 0 24 56 Left 2
WINDOW 3 24 8 Left 2
SYMATTR InstName C1
SYMATTR Value 150n
SYMBOL MiniSyms4\\voltage- -416 288 R0
WINDOW 123 0 0 Left 0
WINDOW 39 0 0 Left 0
SYMATTR InstName V2
SYMATTR Value 12
SYMBOL res 144 0 R270
WINDOW 0 32 56 VTop 2
WINDOW 3 0 56 VBottom 2
SYMATTR InstName R2
SYMATTR Value 10k
TEXT -280 392 Left 2 !;.ac dec 10000 1 10000\n.tran 0 0.04 0.01
